Version 4.1
SHEET 1 880 684
WIRE -384 240 -432 240
WIRE -272 240 -304 240
WIRE -240 240 -272 240
WIRE -432 272 -432 240
WIRE 96 288 64 288
WIRE 144 288 96 288
WIRE -560 304 -624 304
WIRE -624 320 -624 304
WIRE -32 416 -48 416
WIRE 0 416 -32 416
WIRE 96 416 96 288
WIRE 96 416 80 416
WIRE -32 448 -32 416
FLAG -560 224 V+
FLAG -64 304 V+
FLAG -64 336 V-
FLAG -560 384 V-
FLAG -240 240 In-
FLAG -64 272 In-
FLAG -64 240 In+
FLAG -624 320 0
FLAG -432 352 0
FLAG -48 416 In+
FLAG -272 320 0
FLAG 144 368 0
FLAG -32 528 0
FLAG 96 288 OUT
SYMBOL A_AmpBasico 0 288 R0
SYMATTR InstName X1
SYMBOL voltage -560 208 R0
WINDOW 3 26 80 Left 2
WINDOW 123 24 44 Left 2
WINDOW 39 0 0 Left 0
SYMATTR Value 15
SYMATTR Value2 AC 0.1
SYMATTR InstName V1
SYMBOL voltage -560 288 R0
WINDOW 0 27 31 Left 2
WINDOW 123 0 0 Left 0
WINDOW 39 0 0 Left 0
SYMATTR InstName V2
SYMATTR Value 15
SYMBOL voltage -432 256 R0
WINDOW 3 26 108 Left 2
WINDOW 123 26 80 Left 2
WINDOW 39 0 0 Left 0
SYMATTR Value ""
SYMATTR InstName V3
SYMBOL res 96 400 R90
WINDOW 0 0 56 VBottom 2
WINDOW 3 32 56 VTop 2
SYMATTR InstName R1
SYMATTR Value 4.7k
SYMBOL res -288 224 R90
WINDOW 0 0 56 VBottom 2
WINDOW 3 32 56 VTop 2
SYMATTR InstName R2
SYMATTR Value 470
SYMBOL res -288 224 R0
SYMATTR InstName R3
SYMATTR Value 4.7k
SYMBOL res 128 272 R0
SYMATTR InstName R4
SYMATTR Value 8
SYMBOL res -48 432 R0
SYMATTR InstName R5
SYMATTR Value 470
TEXT -440 464 Left 2 !.ac dec 5 200 100MEG
