Version 4.1
SHEET 1 880 684
WIRE -384 288 -464 288
WIRE -272 288 -304 288
WIRE 96 288 64 288
WIRE 144 288 96 288
WIRE -560 304 -624 304
WIRE -464 304 -464 288
WIRE -624 320 -624 304
WIRE -272 336 -288 336
WIRE -288 352 -288 336
WIRE -464 400 -464 384
WIRE 144 400 144 368
FLAG -560 224 V+
FLAG -64 304 V+
FLAG -64 336 V-
FLAG -560 384 V-
FLAG -272 336 In-
FLAG -64 272 In-
FLAG -64 240 In+
FLAG -624 320 0
FLAG -464 400 0
FLAG -272 288 In+
FLAG 144 400 0
FLAG 96 288 OUT
FLAG -288 352 0
SYMBOL A_AmpBasico 0 288 R0
SYMATTR InstName X1
SYMBOL voltage -560 208 R0
WINDOW 3 26 80 Left 2
WINDOW 123 0 0 Left 0
WINDOW 39 0 0 Left 0
SYMATTR Value 15
SYMATTR InstName V1
SYMBOL voltage -560 288 R0
WINDOW 0 27 31 Left 2
WINDOW 123 0 0 Left 0
WINDOW 39 0 0 Left 0
SYMATTR InstName V2
SYMATTR Value 15
SYMBOL voltage -464 288 R0
WINDOW 123 0 0 Left 0
WINDOW 39 0 0 Left 0
SYMATTR InstName V4
SYMATTR Value PULSE(-2 2 1u 1p 1p 250us 1ms)
SYMBOL res -288 272 R90
WINDOW 0 0 56 VBottom 2
WINDOW 3 32 56 VTop 2
SYMATTR InstName R2
SYMATTR Value 470
SYMBOL res 128 272 R0
SYMATTR InstName R1
SYMATTR Value 8
TEXT -432 424 Left 2 !.tran 0 0.5m 0
