Version 4.1
SHEET 1 1452 680
WIRE -64 -464 -80 -464
WIRE 48 -464 -64 -464
WIRE 320 -464 48 -464
WIRE 512 -464 320 -464
WIRE 704 -464 512 -464
WIRE 832 -464 704 -464
WIRE 912 -464 832 -464
WIRE 48 -448 48 -464
WIRE 320 -448 320 -464
WIRE 512 -448 512 -464
WIRE 704 -448 704 -464
WIRE -64 -432 -64 -464
WIRE 768 -416 752 -416
WIRE 640 -400 592 -400
WIRE 912 -400 912 -464
WIRE 320 -352 320 -368
WIRE 832 -352 832 -368
WIRE 848 -352 832 -352
WIRE 512 -336 512 -368
WIRE 592 -336 592 -400
WIRE 592 -336 512 -336
WIRE 704 -336 704 -352
WIRE 752 -336 752 -416
WIRE 752 -336 704 -336
WIRE 256 -304 -16 -304
WIRE 512 -288 512 -336
WIRE 752 -272 752 -336
WIRE 832 -272 832 -352
WIRE 912 -272 912 -304
WIRE 48 -256 48 -368
WIRE 320 -240 320 -256
WIRE 320 -240 224 -240
WIRE 448 -240 320 -240
WIRE -64 -208 -64 -368
WIRE -16 -208 -16 -304
WIRE -16 -208 -64 -208
WIRE -64 -192 -64 -208
WIRE 320 -192 320 -240
WIRE 512 -176 512 -192
WIRE 624 -176 512 -176
WIRE 704 -176 704 -336
WIRE 704 -176 624 -176
WIRE 912 -160 912 -272
WIRE 224 -144 224 -160
WIRE 256 -144 224 -144
WIRE 224 -128 224 -144
WIRE -64 -96 -64 -112
WIRE 48 -64 48 -160
WIRE 48 -64 -32 -64
WIRE 112 -64 48 -64
WIRE 912 -64 912 -80
WIRE 1008 -64 912 -64
WIRE 320 -48 320 -96
WIRE 320 -48 224 -48
WIRE 624 -48 624 -176
WIRE 912 -48 912 -64
WIRE -32 -32 -32 -64
WIRE 112 -32 112 -64
WIRE 256 0 240 0
WIRE 320 0 320 -48
WIRE 400 0 320 0
WIRE 336 48 320 48
WIRE 400 64 400 0
WIRE 464 64 400 64
WIRE 240 96 240 0
WIRE 256 96 240 96
WIRE -32 112 -32 48
WIRE 112 112 112 48
WIRE 400 112 400 64
WIRE 320 160 320 144
WIRE 336 160 320 160
WIRE 624 160 624 32
WIRE 624 160 528 160
WIRE 672 160 624 160
WIRE 528 176 528 160
WIRE 320 192 320 160
WIRE 912 192 912 32
WIRE 464 224 464 64
WIRE 912 224 912 192
WIRE -32 240 -32 208
WIRE 240 240 240 96
WIRE 240 240 -32 240
WIRE 112 256 112 208
WIRE 112 256 48 256
WIRE 240 256 240 240
WIRE 672 256 672 160
WIRE 752 256 752 192
WIRE 752 256 672 256
WIRE -32 272 -32 240
WIRE 112 272 112 256
WIRE 672 272 672 256
WIRE 832 272 832 192
WIRE 848 272 832 272
WIRE 528 288 528 272
WIRE 592 288 528 288
WIRE 832 288 832 272
WIRE 400 304 400 208
WIRE 400 304 304 304
WIRE 528 304 528 288
WIRE 48 320 48 256
WIRE 48 320 32 320
WIRE 592 320 592 288
WIRE 608 320 592 320
WIRE 752 336 752 256
WIRE 768 336 752 336
WIRE -32 384 -32 368
WIRE -32 384 -48 384
WIRE 112 384 112 368
WIRE 112 384 -32 384
WIRE 240 384 240 352
WIRE 240 384 112 384
WIRE 320 384 320 272
WIRE 320 384 240 384
WIRE 400 384 320 384
WIRE 528 384 400 384
WIRE 672 384 672 368
WIRE 672 384 528 384
WIRE 832 384 672 384
WIRE 912 384 912 320
WIRE 912 384 832 384
FLAG -80 -464 V+
IOPIN -80 -464 In
FLAG -48 384 V-
IOPIN -48 384 In
FLAG -96 160 In+
IOPIN -96 160 In
FLAG 176 160 In-
IOPIN 176 160 In
FLAG 1008 -64 OUT
IOPIN 1008 -64 Out
FLAG -64 -96 0
FLAG 336 48 V+
IOPIN 336 48 In
SYMBOL pnp -96 208 M180
WINDOW 3 21 62 Left 2
WINDOW 0 22 37 Left 2
SYMATTR Value BC557B
SYMATTR InstName Q4
SYMBOL pnp 176 208 R180
WINDOW 3 22 58 Left 2
WINDOW 0 27 34 Left 2
SYMATTR Value BC557B
SYMATTR InstName Q5
SYMBOL res 304 -464 R0
SYMATTR InstName R4
SYMATTR Value 680
SYMBOL res 736 176 M90
WINDOW 0 0 56 VBottom 2
WINDOW 3 32 56 VTop 2
SYMATTR InstName R9
SYMATTR Value 8k
SYMBOL res 816 176 M90
WINDOW 0 0 56 VBottom 2
WINDOW 3 32 56 VTop 2
SYMATTR InstName R10
SYMATTR Value 120
SYMBOL npn 768 -464 R0
SYMATTR InstName Q2
SYMBOL npn 848 -400 R0
WINDOW 0 35 32 Left 2
WINDOW 3 32 62 Left 2
SYMATTR InstName Q3
SYMBOL res 736 -256 R270
WINDOW 0 32 56 VTop 2
WINDOW 3 0 56 VBottom 2
SYMATTR InstName R11
SYMATTR Value 8k
SYMBOL res 816 -256 R270
WINDOW 0 32 56 VTop 2
WINDOW 3 0 56 VBottom 2
SYMATTR InstName R12
SYMATTR Value 120
SYMBOL pnp 848 320 M180
WINDOW 0 37 31 Left 2
WINDOW 3 28 60 Left 2
SYMATTR InstName Q6
SYMBOL pnp 768 384 M180
WINDOW 0 28 36 Left 2
WINDOW 3 32 55 Left 2
SYMATTR InstName Q7
SYMBOL npn 256 48 R0
WINDOW 0 26 35 Left 2
WINDOW 3 23 61 Left 2
SYMATTR InstName Q1
SYMATTR Value BC547C
SYMBOL cap 320 -16 R90
WINDOW 0 18 51 VBottom 2
WINDOW 3 28 42 VTop 2
SYMATTR InstName C1
SYMATTR Value 10p
SYMBOL res -48 -48 R0
SYMATTR InstName R13
SYMATTR Value 56
SYMBOL res 96 -48 R0
SYMATTR InstName R14
SYMATTR Value 56
SYMBOL res 384 288 R0
SYMATTR InstName R16
SYMATTR Value 56
SYMBOL npn 32 272 M0
WINDOW 0 22 34 Left 2
WINDOW 3 22 57 Left 2
SYMATTR InstName Q8
SYMATTR Value BC547C
SYMBOL npn 48 272 R0
WINDOW 0 20 33 Left 2
WINDOW 3 20 59 Left 2
SYMATTR InstName Q9
SYMATTR Value BC547C
SYMBOL diode -48 -368 R180
WINDOW 0 24 64 Left 2
WINDOW 3 24 0 Left 2
SYMATTR InstName D6
SYMATTR Value 1N750
SYMBOL res -80 -208 R0
SYMATTR InstName R1
SYMATTR Value 1.5k
SYMBOL pnp -16 -160 M180
WINDOW 3 52 70 Left 2
WINDOW 0 49 46 Left 2
SYMATTR Value BC557B
SYMATTR InstName Q10
SYMBOL res 32 -464 R0
SYMATTR InstName R2
SYMATTR Value 1k
SYMBOL pnp 256 -256 M180
WINDOW 3 52 70 Left 2
WINDOW 0 49 46 Left 2
SYMATTR Value BC557B
SYMATTR InstName Q11
SYMBOL npn 256 -192 R0
SYMATTR InstName Q12
SYMATTR Value TIP31C
SYMBOL res 208 -256 R0
WINDOW 0 -33 49 Left 2
WINDOW 3 -46 82 Left 2
SYMATTR InstName R3
SYMATTR Value 3.6k
SYMBOL res 208 -144 R0
WINDOW 0 -32 33 Left 2
WINDOW 3 -39 62 Left 2
SYMATTR InstName R5
SYMATTR Value 1.5k
SYMBOL npn 336 112 R0
WINDOW 0 24 35 Left 2
WINDOW 3 22 59 Left 2
SYMATTR InstName Q13
SYMATTR Value BC547C
SYMBOL res 304 176 R0
SYMATTR InstName R6
SYMATTR Value 510
SYMBOL npn 304 256 M0
WINDOW 0 29 34 Left 2
WINDOW 3 23 61 Left 2
SYMATTR InstName Q14
SYMATTR Value BC547C
SYMBOL npn 608 272 R0
WINDOW 0 24 35 Left 2
WINDOW 3 22 59 Left 2
SYMATTR InstName Q15
SYMATTR Value BD135
SYMBOL res 896 -176 R0
SYMATTR InstName R7
SYMATTR Value 0.22
SYMBOL res 896 -64 R0
SYMATTR InstName R8
SYMATTR Value 0.22
SYMBOL pnp 640 -352 M180
WINDOW 3 22 58 Left 2
WINDOW 0 27 34 Left 2
SYMATTR Value BD140
SYMATTR InstName Q18
SYMBOL res 608 -64 R0
SYMATTR InstName R15
SYMATTR Value 220
SYMBOL res 496 -464 R0
SYMATTR InstName R17
SYMATTR Value 1k
SYMBOL npn 448 -288 R0
WINDOW 0 36 36 Left 2
WINDOW 3 32 60 Left 2
SYMATTR InstName Q19
SYMATTR Value BC547C
SYMBOL pnp 464 272 M180
WINDOW 3 22 58 Left 2
WINDOW 0 27 34 Left 2
SYMATTR Value BC557B
SYMATTR InstName Q16
SYMBOL res 512 288 R0
SYMATTR InstName R18
SYMATTR Value 1k
TEXT 960 -264 Left 2 ;Modelo de um TIP122
TEXT 936 368 Left 2 ;Modelo de um TIP127
TEXT 1032 216 Left 2 !.inc PowerTransistor.lib
RECTANGLE Normal 944 -224 736 -480 2
RECTANGLE Normal 928 400 736 144 2
