Version 4.1
SHEET 1 1376 680
WIRE -80 -464 -112 -464
WIRE 48 -464 -80 -464
WIRE 320 -464 48 -464
WIRE 688 -464 320 -464
WIRE 816 -464 688 -464
WIRE 896 -464 816 -464
WIRE 48 -448 48 -464
WIRE 320 -448 320 -464
WIRE 688 -448 688 -464
WIRE -80 -432 -80 -464
WIRE 752 -416 736 -416
WIRE 624 -400 528 -400
WIRE 896 -400 896 -464
WIRE 320 -352 320 -368
WIRE 816 -352 816 -368
WIRE 832 -352 816 -352
WIRE 688 -336 688 -352
WIRE 736 -336 736 -416
WIRE 736 -336 688 -336
WIRE 256 -304 -16 -304
WIRE 736 -272 736 -336
WIRE 816 -272 816 -352
WIRE 896 -272 896 -304
WIRE 48 -256 48 -368
WIRE 320 -224 320 -256
WIRE 320 -224 224 -224
WIRE 528 -224 528 -400
WIRE 528 -224 320 -224
WIRE -80 -208 -80 -368
WIRE -16 -208 -16 -304
WIRE -16 -208 -80 -208
WIRE 528 -208 528 -224
WIRE 320 -176 320 -224
WIRE 896 -160 896 -272
WIRE 896 -160 592 -160
WIRE 224 -128 224 -144
WIRE 256 -128 224 -128
WIRE 224 -112 224 -128
WIRE -80 -96 -80 -128
WIRE 48 -64 48 -160
WIRE 48 -64 -32 -64
WIRE 112 -64 48 -64
WIRE 528 -64 528 -112
WIRE 896 -64 896 -80
WIRE 896 -64 528 -64
WIRE 992 -64 896 -64
WIRE 896 -48 896 -64
WIRE -32 -32 -32 -64
WIRE 112 -32 112 -64
WIRE 224 -16 224 -32
WIRE 320 -16 320 -80
WIRE 320 -16 224 -16
WIRE 528 -16 528 -64
WIRE 256 16 240 16
WIRE 320 16 320 -16
WIRE 384 16 320 16
WIRE 896 32 592 32
WIRE 352 48 320 48
WIRE 688 48 688 -336
WIRE 352 64 352 48
WIRE 240 96 240 16
WIRE 256 96 240 96
WIRE 384 96 384 16
WIRE 528 96 528 80
WIRE 528 96 384 96
WIRE -32 112 -32 48
WIRE 112 112 112 48
WIRE 384 112 384 96
WIRE 320 160 320 144
WIRE 320 192 320 160
WIRE 896 192 896 32
WIRE 896 224 896 192
WIRE -32 240 -32 208
WIRE 240 240 240 96
WIRE 240 240 -32 240
WIRE 112 256 112 208
WIRE 112 256 48 256
WIRE 240 256 240 240
WIRE 688 256 688 128
WIRE 688 256 656 256
WIRE 736 256 736 192
WIRE 736 256 688 256
WIRE -32 272 -32 240
WIRE 112 272 112 256
WIRE 656 272 656 256
WIRE 816 272 816 192
WIRE 832 272 816 272
WIRE 816 288 816 272
WIRE 384 304 384 208
WIRE 384 304 304 304
WIRE 48 320 48 256
WIRE 48 320 32 320
WIRE 528 320 528 96
WIRE 592 320 528 320
WIRE 736 336 736 256
WIRE 752 336 736 336
WIRE -32 384 -32 368
WIRE -32 384 -48 384
WIRE 112 384 112 368
WIRE 112 384 -32 384
WIRE 240 384 240 352
WIRE 240 384 112 384
WIRE 320 384 320 272
WIRE 320 384 240 384
WIRE 384 384 320 384
WIRE 656 384 656 368
WIRE 656 384 384 384
WIRE 816 384 656 384
WIRE 896 384 896 320
WIRE 896 384 816 384
FLAG -112 -464 V+
IOPIN -112 -464 In
FLAG -48 384 V-
IOPIN -48 384 In
FLAG -96 160 In+
IOPIN -96 160 In
FLAG 176 160 In-
IOPIN 176 160 In
FLAG 992 -64 OUT
IOPIN 992 -64 Out
FLAG -80 -96 0
FLAG 352 64 0
SYMBOL pnp -96 208 M180
WINDOW 3 21 62 Left 2
WINDOW 0 22 37 Left 2
SYMATTR Value BC557B
SYMATTR InstName Q4
SYMBOL pnp 176 208 R180
WINDOW 3 22 58 Left 2
WINDOW 0 27 34 Left 2
SYMATTR Value BC557B
SYMATTR InstName Q5
SYMBOL res 304 -464 R0
SYMATTR InstName R4
SYMATTR Value 620
SYMBOL res 720 176 M90
WINDOW 0 0 56 VBottom 2
WINDOW 3 32 56 VTop 2
SYMATTR InstName R9
SYMATTR Value 8k
SYMBOL res 800 176 M90
WINDOW 0 0 56 VBottom 2
WINDOW 3 32 56 VTop 2
SYMATTR InstName R10
SYMATTR Value 120
SYMBOL npn 752 -464 R0
SYMATTR InstName Q2
SYMBOL npn 832 -400 R0
WINDOW 0 35 32 Left 2
WINDOW 3 32 62 Left 2
SYMATTR InstName Q3
SYMBOL res 720 -256 R270
WINDOW 0 32 56 VTop 2
WINDOW 3 0 56 VBottom 2
SYMATTR InstName R11
SYMATTR Value 8k
SYMBOL res 800 -256 R270
WINDOW 0 32 56 VTop 2
WINDOW 3 0 56 VBottom 2
SYMATTR InstName R12
SYMATTR Value 120
SYMBOL pnp 832 320 M180
WINDOW 0 37 31 Left 2
WINDOW 3 28 60 Left 2
SYMATTR InstName Q6
SYMBOL pnp 752 384 M180
WINDOW 0 28 36 Left 2
WINDOW 3 32 55 Left 2
SYMATTR InstName Q7
SYMBOL npn 256 48 R0
WINDOW 0 26 35 Left 2
WINDOW 3 23 61 Left 2
SYMATTR InstName Q1
SYMATTR Value BC547C
SYMBOL cap 320 0 R90
WINDOW 0 18 51 VBottom 2
WINDOW 3 28 42 VTop 2
SYMATTR InstName C1
SYMATTR Value 10p
SYMBOL res -48 -48 R0
SYMATTR InstName R13
SYMATTR Value 56
SYMBOL res 96 -48 R0
SYMATTR InstName R14
SYMATTR Value 56
SYMBOL res 368 288 R0
SYMATTR InstName R16
SYMATTR Value 56
SYMBOL npn 32 272 M0
WINDOW 0 22 34 Left 2
WINDOW 3 22 57 Left 2
SYMATTR InstName Q8
SYMATTR Value BC547C
SYMBOL npn 48 272 R0
WINDOW 0 20 33 Left 2
WINDOW 3 20 59 Left 2
SYMATTR InstName Q9
SYMATTR Value BC547C
SYMBOL diode -64 -368 R180
WINDOW 0 24 64 Left 2
WINDOW 3 24 0 Left 2
SYMATTR InstName D6
SYMATTR Value 1N750
SYMBOL res -96 -224 R0
SYMATTR InstName R1
SYMATTR Value 1k
SYMBOL pnp -16 -160 M180
WINDOW 3 52 70 Left 2
WINDOW 0 49 46 Left 2
SYMATTR Value BC557B
SYMATTR InstName Q10
SYMBOL res 32 -464 R0
SYMATTR InstName R2
SYMATTR Value 1k
SYMBOL pnp 256 -256 M180
WINDOW 3 52 70 Left 2
WINDOW 0 49 46 Left 2
SYMATTR Value BC557B
SYMATTR InstName Q11
SYMBOL npn 256 -176 R0
SYMATTR InstName Q12
SYMATTR Value BC547C
SYMBOL res 208 -240 R0
SYMATTR InstName R3
SYMATTR Value 3.6k
SYMBOL res 208 -128 R0
SYMATTR InstName R5
SYMATTR Value 1.5k
SYMBOL npn 320 112 R0
WINDOW 0 24 35 Left 2
WINDOW 3 22 59 Left 2
SYMATTR InstName Q13
SYMATTR Value BC547C
SYMBOL res 304 176 R0
SYMATTR InstName R6
SYMATTR Value 510
SYMBOL npn 304 256 M0
WINDOW 0 29 34 Left 2
WINDOW 3 23 61 Left 2
SYMATTR InstName Q14
SYMATTR Value BC547C
SYMBOL npn 624 -448 R0
WINDOW 0 24 35 Left 2
WINDOW 3 22 59 Left 2
SYMATTR InstName Q15
SYMATTR Value BC547C
SYMBOL res 880 -176 R0
SYMATTR InstName R7
SYMATTR Value 0.22
SYMBOL res 880 -64 R0
SYMATTR InstName R8
SYMATTR Value 0.22
SYMBOL npn 592 -208 M0
WINDOW 0 24 35 Left 2
WINDOW 3 21 59 Left 2
SYMATTR InstName Q16
SYMATTR Value BC547C
SYMBOL pnp 592 80 R180
WINDOW 3 20 59 Left 2
WINDOW 0 16 36 Left 2
SYMATTR Value BC557B
SYMATTR InstName Q17
SYMBOL pnp 592 368 M180
WINDOW 3 22 58 Left 2
WINDOW 0 27 34 Left 2
SYMATTR Value BC557B
SYMATTR InstName Q18
SYMBOL res 672 32 R0
SYMATTR InstName R15
SYMATTR Value 220
TEXT 952 -144 Left 2 ;Modelo de um TIP122
TEXT 984 424 Left 2 ;Modelo de um TIP127
RECTANGLE Normal 928 -224 720 -480 2
RECTANGLE Normal 912 400 720 144 2
